@<TRIPOS>MOLECULE
*****
 9 8 0 0 0
SMALL
GASTEIGER

@<TRIPOS>ATOM
      1 N          -0.2387    0.8753   -0.9682 N.3     1  UNL1        0.0784
      2 S          -1.6625    1.4755   -0.1064 S.3     1  UNL1        0.1222
      3 S           1.1927    1.4570   -0.1064 S.3     1  UNL1        0.1222
      4 O          -1.7590    3.1555   -0.4467 O.3     1  UNL1       -0.0486
      5 O          -1.6648   -0.1959    0.2867 O.3     1  UNL1       -0.0486
      6 O           1.3109    3.1356   -0.4467 O.3     1  UNL1       -0.0486
      7 O           1.1733   -0.2142    0.2867 O.3     1  UNL1       -0.0486
      8 F          -3.0390    2.0200    0.7505 F       1  UNL1       -0.0642
      9 F           2.5761    1.9837    0.7505 F       1  UNL1       -0.0642
@<TRIPOS>BOND
     1     1     2    1
     2     1     3    1
     3     2     4    1
     4     2     5    1
     5     3     6    1
     6     3     7    1
     7     2     8    1
     8     3     9    1
