@<TRIPOS>MOLECULE
RES
3 0 1 0 1
SMALL
NO_CHARGES
@<TRIPOS>CRYSIN
    3.0130     3.0130     3.0130    90.0000    90.0000    90.0000  1  1
@<TRIPOS>ATOM
       1 O            0.0000     0.0000     0.0000 O             1 RES     
       2 H           -0.6126    -0.7357     0.0000 H             1 RES     
       3 H           -0.5469     0.7762     0.0000 H             1 RES     
@<TRIPOS>BOND
     1     1     2    1
     2     1     3    1
@<TRIPOS>SUBSTRUCTURE
       1 RES             1 RESIDUE    0 **** ROOT      0
